ApiEletroposto/Content/Rede/Rede_DMS_Cabos_Curr_Elem.Txt

CIRCUIT ELEMENT CURRENTS

(Currents into element from indicated bus)

Power Delivery Elements

  Bus Phase    Magnitude, A     Angle      (Real)   +j  (Imag)

ELEMENT = "Vsource.SOURCE"
1        1         0.093867 /_  -90.8 =  -0.0012882 +j -0.093858
1        2         0.094838 /_  151.1 =  -0.083025 +j  0.045837
1        3         0.097029 /_   29.7 =   0.084313 +j  0.048021
------------
1        0         0.093867 /_   89.2 =  0.0012882 +j  0.093858
1        0         0.094838 /_  -28.9 =   0.083025 +j -0.045837
1        0         0.097029 /_ -150.3 =  -0.084313 +j -0.048021

ELEMENT = "Line.12512737_ID3594"
6        1          0.61489 /_   60.0 =    0.30752 +j   0.53246
6        2          0.58673 /_  -60.0 =    0.29329 +j  -0.50816
6        3          0.62715 /_  180.0 =   -0.62715 +j 9.2507E-005
------------
1546     1          0.61489 /_ -120.0 =   -0.30752 +j  -0.53246
1546     2          0.58673 /_  120.0 =   -0.29329 +j   0.50816
1546     3          0.62715 /_    0.0 =    0.62715 +j -9.2507E-005

ELEMENT = "Line.676777417_ID3595"
255      1          0.61422 /_ -120.0 =   -0.30719 +j  -0.53188
255      2          0.58606 /_  120.0 =   -0.29296 +j   0.50758
255      3          0.62648 /_    0.0 =    0.62648 +j -9.2503E-005
------------
1546     1          0.61422 /_   60.0 =    0.30719 +j   0.53188
1546     2          0.58606 /_  -60.0 =    0.29296 +j  -0.50758
1546     3          0.62648 /_  180.0 =   -0.62648 +j 9.2502E-005

ELEMENT = "Line.3112140_ID3596"
254      1          0.61355 /_ -120.0 =   -0.30685 +j   -0.5313
254      2          0.58539 /_  120.0 =   -0.29262 +j     0.507
254      3          0.62581 /_    0.0 =    0.62581 +j -9.2498E-005
------------
255      1          0.61355 /_   60.0 =    0.30685 +j    0.5313
255      2          0.58539 /_  -60.0 =    0.29262 +j    -0.507
255      3          0.62581 /_  180.0 =   -0.62581 +j 9.2498E-005

ELEMENT = "Line.3112065_ID3597"
254      1          0.61288 /_   60.0 =    0.30652 +j   0.53072
254      2          0.58472 /_  -60.0 =    0.29229 +j  -0.50642
254      3          0.62514 /_  180.0 =   -0.62514 +j 9.2492E-005
------------
253      1          0.61288 /_ -120.0 =   -0.30652 +j  -0.53072
253      2          0.58472 /_  120.0 =   -0.29229 +j   0.50642
253      3          0.62514 /_    0.0 =    0.62514 +j -9.2492E-005

ELEMENT = "Line.656775987_ID3599"
253      1          0.61154 /_   60.0 =    0.30585 +j   0.52957
253      2          0.58338 /_  -60.0 =    0.29162 +j  -0.50526
253      3           0.6238 /_  180.0 =    -0.6238 +j 9.2482E-005
------------
2048     1          0.61154 /_ -120.0 =   -0.30585 +j  -0.52957
2048     2          0.58338 /_  120.0 =   -0.29162 +j   0.50526
2048     3           0.6238 /_    0.0 =     0.6238 +j -9.2481E-005

ELEMENT = "Line.3112064_ID3598"
252      1       0.00033466 /_ -120.0 =  -0.00016733 +j -0.00028982
252      2       0.00033465 /_  120.0 =  -0.00016732 +j 0.00028982
252      3       0.00033465 /_    0.0 =  0.00033465 +j -2.794E-009
------------
253      1       0.00033466 /_   60.0 =  0.00016733 +j 0.00028982
253      2       0.00033465 /_  -60.0 =  0.00016732 +j -0.00028982
253      3       0.00033465 /_  180.0 =  -0.00033465 +j 2.794E-009

ELEMENT = "Line.3112221_ID3600"
2048     1          0.61087 /_   60.0 =    0.30551 +j   0.52899
2048     2          0.58271 /_  -60.0 =    0.29128 +j  -0.50468
2048     3          0.62313 /_  180.0 =   -0.62313 +j 9.2474E-005
------------
2224     1          0.61087 /_ -120.0 =   -0.30551 +j  -0.52899
2224     2          0.58271 /_  120.0 =   -0.29128 +j   0.50468
2224     3          0.62313 /_    0.0 =    0.62313 +j -9.2472E-005

ELEMENT = "Line.3112302_ID3601"
2214     1           0.6102 /_ -120.0 =   -0.30518 +j  -0.52841
2214     2          0.58204 /_  120.0 =   -0.29095 +j    0.5041
2214     3          0.62246 /_    0.0 =    0.62246 +j -9.2459E-005
------------
2224     1           0.6102 /_   60.0 =    0.30518 +j   0.52841
2224     2          0.58204 /_  -60.0 =    0.29095 +j   -0.5041
2224     3          0.62246 /_  180.0 =   -0.62246 +j 9.2462E-005

ELEMENT = "Line.3112426_ID3602"
2213     1          0.60953 /_ -120.0 =   -0.30484 +j  -0.52783
2213     2          0.58137 /_  120.0 =   -0.29062 +j   0.50352
2213     3          0.62179 /_    0.0 =    0.62179 +j -9.2442E-005
------------
2214     1          0.60953 /_   60.0 =    0.30484 +j   0.52783
2214     2          0.58137 /_  -60.0 =    0.29062 +j  -0.50352
2214     3          0.62179 /_  180.0 =   -0.62179 +j 9.2443E-005

ELEMENT = "Line.3112426_ID3603"
2212     1          0.60886 /_ -120.0 =   -0.30451 +j  -0.52725
2212     2           0.5807 /_  120.0 =   -0.29028 +j   0.50295
2212     3          0.62112 /_    0.0 =    0.62112 +j -9.2424E-005
------------
2213     1          0.60886 /_   60.0 =    0.30451 +j   0.52725
2213     2           0.5807 /_  -60.0 =    0.29028 +j  -0.50295
2213     3          0.62112 /_  180.0 =   -0.62112 +j 9.2424E-005

ELEMENT = "Line.3112426_ID3604"
1544     1          0.60819 /_ -120.0 =   -0.30417 +j  -0.52667
1544     2          0.58003 /_  120.0 =   -0.28995 +j   0.50237
1544     3          0.62045 /_    0.0 =    0.62045 +j -9.2404E-005
------------
2212     1          0.60819 /_   60.0 =    0.30417 +j   0.52667
2212     2          0.58003 /_  -60.0 =    0.28995 +j  -0.50237
2212     3          0.62045 /_  180.0 =   -0.62045 +j 9.2405E-005

ELEMENT = "Line.12512925_ID3605"
1544     1          0.60752 /_   60.0 =    0.30384 +j   0.52609
1544     2          0.57937 /_  -60.0 =    0.28961 +j  -0.50179
1544     3          0.61978 /_  180.0 =   -0.61978 +j 9.2384E-005
------------
1545     1          0.60752 /_ -120.0 =   -0.30384 +j  -0.52609
1545     2          0.57937 /_  120.0 =   -0.28961 +j   0.50179
1545     3          0.61978 /_    0.0 =    0.61978 +j -9.2382E-005

ELEMENT = "Line.12512935_ID3606"
1543     1          0.60686 /_ -120.0 =    -0.3035 +j  -0.52551
1543     2           0.5787 /_  120.0 =   -0.28928 +j   0.50121
1543     3          0.61911 /_    0.0 =    0.61911 +j -9.2359E-005
------------
1545     1          0.60686 /_   60.0 =     0.3035 +j   0.52551
1545     2           0.5787 /_  -60.0 =    0.28928 +j  -0.50121
1545     3          0.61911 /_  180.0 =   -0.61911 +j 9.2359E-005

ELEMENT = "Line.3112612_ID3607"
267      1          0.60619 /_ -120.0 =   -0.30317 +j  -0.52493
267      2          0.57803 /_  120.0 =   -0.28894 +j   0.50063
267      3          0.61845 /_    0.0 =    0.61845 +j -9.2335E-005
------------
1543     1          0.60619 /_   60.0 =    0.30317 +j   0.52493
1543     2          0.57803 /_  -60.0 =    0.28894 +j  -0.50063
1543     3          0.61845 /_  180.0 =   -0.61845 +j 9.2335E-005

ELEMENT = "Line.12512955_ID3608"
267      1          0.60552 /_   60.0 =    0.30284 +j   0.52435
267      2          0.57736 /_  -60.0 =    0.28861 +j  -0.50005
267      3          0.61778 /_  180.0 =   -0.61778 +j 9.231E-005
------------
1541     1          0.60552 /_ -120.0 =   -0.30284 +j  -0.52435
1541     2          0.57736 /_  120.0 =   -0.28861 +j   0.50005
1541     3          0.61778 /_    0.0 =    0.61778 +j -9.231E-005

ELEMENT = "Line.3112654_ID3609"
846      1          0.60485 /_ -120.0 =    -0.3025 +j  -0.52377
846      2          0.57669 /_  120.0 =   -0.28827 +j   0.49947
846      3          0.61711 /_    0.0 =    0.61711 +j -9.2284E-005
------------
1541     1          0.60485 /_   60.0 =     0.3025 +j   0.52377
1541     2          0.57669 /_  -60.0 =    0.28827 +j  -0.49947
1541     3          0.61711 /_  180.0 =   -0.61711 +j 9.2285E-005

ELEMENT = "Line.12617350_ID3610"
844      1          0.60418 /_ -120.0 =   -0.30217 +j  -0.52319
844      2          0.57602 /_  120.0 =   -0.28794 +j   0.49889
844      3          0.61644 /_    0.0 =    0.61644 +j -9.2257E-005
------------
846      1          0.60418 /_   60.0 =    0.30217 +j   0.52319
846      2          0.57602 /_  -60.0 =    0.28794 +j  -0.49889
846      3          0.61644 /_  180.0 =   -0.61644 +j 9.2259E-005

ELEMENT = "Line.12617350_ID3611"
844      1          0.60351 /_   60.0 =    0.30183 +j   0.52261
844      2          0.57535 /_  -60.0 =     0.2876 +j  -0.49831
844      3          0.61577 /_  180.0 =   -0.61577 +j 9.223E-005
------------
845      1          0.60351 /_ -120.0 =   -0.30183 +j  -0.52261
845      2          0.57535 /_  120.0 =    -0.2876 +j   0.49831
845      3          0.61577 /_    0.0 =    0.61577 +j -9.2228E-005

ELEMENT = "Line.3112918_ID3612"
845      1          0.60284 /_   60.0 =     0.3015 +j   0.52203
845      2          0.57468 /_  -60.0 =    0.28727 +j  -0.49773
845      3           0.6151 /_  180.0 =    -0.6151 +j 9.2199E-005
------------
2221     1          0.60284 /_ -120.0 =    -0.3015 +j  -0.52203
2221     2          0.57468 /_  120.0 =   -0.28727 +j   0.49773
2221     3           0.6151 /_    0.0 =     0.6151 +j -9.2198E-005

ELEMENT = "Line.3112969_ID3613"
368      1          0.60217 /_ -120.0 =   -0.30116 +j  -0.52145
368      2          0.57401 /_  120.0 =   -0.28693 +j   0.49715
368      3          0.61443 /_    0.0 =    0.61443 +j -9.2167E-005
------------
2221     1          0.60217 /_   60.0 =    0.30116 +j   0.52145
2221     2          0.57401 /_  -60.0 =    0.28693 +j  -0.49715
2221     3          0.61443 /_  180.0 =   -0.61443 +j 9.2167E-005

ELEMENT = "Line.3112970_ID3615"
2220     1       0.00033468 /_ -120.0 =  -0.00016735 +j -0.00028983
2220     2       0.00033468 /_  120.0 =  -0.00016733 +j 0.00028985
2220     3       0.00033468 /_    0.0 =  0.00033468 +j -1.5832E-008
------------
368      1       0.00033468 /_   60.0 =  0.00016735 +j 0.00028983
368      2       0.00033468 /_  -60.0 =  0.00016733 +j -0.00028985
368      3       0.00033468 /_  180.0 =  -0.00033468 +j 1.6124E-008

ELEMENT = "Line.481975837_ID3614"
368      1          0.60083 /_   60.0 =    0.30049 +j   0.52029
368      2          0.57267 /_  -60.0 =    0.28627 +j  -0.49599
368      3          0.61309 /_  180.0 =   -0.61309 +j 9.2103E-005
------------
369      1          0.60083 /_ -120.0 =   -0.30049 +j  -0.52029
369      2          0.57267 /_  120.0 =   -0.28627 +j   0.49599
369      3          0.61309 /_    0.0 =    0.61309 +j -9.2103E-005

ELEMENT = "Line.12513035_ID3616"
369      1          0.60016 /_   60.0 =    0.30016 +j   0.51971
369      2            0.572 /_  -60.0 =    0.28593 +j  -0.49541
369      3          0.61242 /_  180.0 =   -0.61242 +j 9.2071E-005
------------
1540     1          0.60016 /_ -120.0 =   -0.30016 +j  -0.51971
1540     2            0.572 /_  120.0 =   -0.28593 +j   0.49541
1540     3          0.61242 /_    0.0 =    0.61242 +j -9.2071E-005

ELEMENT = "Line.3112999_ID3617"
2218     1          0.59949 /_ -120.0 =   -0.29982 +j  -0.51913
2218     2          0.57133 /_  120.0 =    -0.2856 +j   0.49483
2218     3          0.61175 /_    0.0 =    0.61175 +j -9.2039E-005
------------
1540     1          0.59949 /_   60.0 =    0.29982 +j   0.51913
1540     2          0.57133 /_  -60.0 =     0.2856 +j  -0.49483
1540     3          0.61175 /_  180.0 =   -0.61175 +j 9.2039E-005

ELEMENT = "Line.3112999_ID3618"
2217     1          0.59882 /_ -120.0 =   -0.29949 +j  -0.51855
2217     2          0.57066 /_  120.0 =   -0.28526 +j   0.49425
2217     3          0.61108 /_    0.0 =    0.61108 +j -9.2005E-005
------------
2218     1          0.59882 /_   60.0 =    0.29949 +j   0.51855
2218     2          0.57066 /_  -60.0 =    0.28526 +j  -0.49425
2218     3          0.61108 /_  180.0 =   -0.61108 +j 9.2007E-005

ELEMENT = "Line.3112999_ID3619"
2051     1          0.59815 /_ -120.0 =   -0.29915 +j  -0.51797
2051     2          0.56999 /_  120.0 =   -0.28493 +j   0.49367
2051     3          0.61041 /_    0.0 =    0.61041 +j -9.1972E-005
------------
2217     1          0.59815 /_   60.0 =    0.29915 +j   0.51797
2217     2          0.56999 /_  -60.0 =    0.28493 +j  -0.49367
2217     3          0.61041 /_  180.0 =   -0.61041 +j 9.1972E-005

ELEMENT = "Line.616094586_ID3620"
2049     1          0.59748 /_ -120.0 =   -0.29882 +j  -0.51739
2049     2          0.56932 /_  120.0 =   -0.28459 +j   0.49309
2049     3          0.60974 /_    0.0 =    0.60974 +j -9.1937E-005
------------
2051     1          0.59748 /_   60.0 =    0.29882 +j   0.51739
2051     2          0.56932 /_  -60.0 =    0.28459 +j  -0.49309
2051     3          0.60974 /_  180.0 =   -0.60974 +j 9.1938E-005

ELEMENT = "Line.3113135_ID3622"
2049     1          0.59615 /_   60.0 =    0.29815 +j   0.51623
2049     2          0.56799 /_  -60.0 =    0.28392 +j  -0.49193
2049     3           0.6084 /_  180.0 =    -0.6084 +j 9.1866E-005
------------
2211     1          0.59615 /_ -120.0 =   -0.29815 +j  -0.51623
2211     2          0.56799 /_  120.0 =   -0.28392 +j   0.49193
2211     3           0.6084 /_    0.0 =     0.6084 +j -9.1865E-005

ELEMENT = "Line.616094589_ID3621"
2049     1       0.00033468 /_   60.0 =  0.00016736 +j 0.00028984
2049     2       0.00033468 /_  -60.0 =  0.00016733 +j -0.00028985
2049     3       0.00033469 /_  180.0 =  -0.00033469 +j 1.8044E-008
------------
2050     1       0.00033468 /_ -120.0 =  -0.00016736 +j -0.00028984
2050     2       0.00033468 /_  120.0 =  -0.00016733 +j 0.00028985
2050     3       0.00033469 /_    0.0 =  0.00033469 +j -1.7812E-008

ELEMENT = "Line.3113135_ID3623"
2210     1          0.59548 /_ -120.0 =   -0.29781 +j  -0.51565
2210     2          0.56732 /_  120.0 =   -0.28359 +j   0.49135
2210     3          0.60774 /_    0.0 =    0.60774 +j -9.1829E-005
------------
2211     1          0.59548 /_   60.0 =    0.29781 +j   0.51565
2211     2          0.56732 /_  -60.0 =    0.28359 +j  -0.49135
2211     3          0.60774 /_  180.0 =   -0.60774 +j 9.1829E-005

ELEMENT = "Line.3113194_ID3624"
2210     1          0.59481 /_   60.0 =    0.29748 +j   0.51507
2210     2          0.56665 /_  -60.0 =    0.28325 +j  -0.49077
2210     3          0.60707 /_  180.0 =   -0.60707 +j 9.1793E-005
------------
2209     1          0.59481 /_ -120.0 =   -0.29748 +j  -0.51507
2209     2          0.56665 /_  120.0 =   -0.28325 +j   0.49077
2209     3          0.60707 /_    0.0 =    0.60707 +j -9.1793E-005

ELEMENT = "Line.3113216_ID3625"
2207     1          0.59414 /_ -120.0 =   -0.29715 +j  -0.51449
2207     2          0.56598 /_  120.0 =   -0.28292 +j   0.49019
2207     3           0.6064 /_    0.0 =     0.6064 +j -9.1755E-005
------------
2209     1          0.59414 /_   60.0 =    0.29715 +j   0.51449
2209     2          0.56598 /_  -60.0 =    0.28292 +j  -0.49019
2209     3           0.6064 /_  180.0 =    -0.6064 +j 9.1756E-005

ELEMENT = "Line.3113216_ID3626"
2207     1          0.59347 /_   60.0 =    0.29681 +j   0.51391
2207     2          0.56531 /_  -60.0 =    0.28258 +j  -0.48961
2207     3          0.60573 /_  180.0 =   -0.60573 +j 9.1719E-005
------------
2208     1          0.59347 /_ -120.0 =   -0.29681 +j  -0.51391
2208     2          0.56531 /_  120.0 =   -0.28258 +j   0.48961
2208     3          0.60573 /_    0.0 =    0.60573 +j -9.1718E-005

ELEMENT = "Line.3113284_ID3627"
1948     1           0.5928 /_ -120.0 =   -0.29648 +j  -0.51333
1948     2          0.56464 /_  120.0 =   -0.28225 +j   0.48903
1948     3          0.60506 /_    0.0 =    0.60506 +j -9.1679E-005
------------
2208     1           0.5928 /_   60.0 =    0.29648 +j   0.51333
2208     2          0.56464 /_  -60.0 =    0.28225 +j  -0.48903
2208     3          0.60506 /_  180.0 =   -0.60506 +j 9.1681E-005

ELEMENT = "Line.301855617_ID3628"
1948     1          0.59213 /_   60.0 =    0.29614 +j   0.51276
1948     2          0.56397 /_  -60.0 =    0.28191 +j  -0.48845
1948     3          0.60439 /_  180.0 =   -0.60439 +j 9.1641E-005
------------
1949     1          0.59213 /_ -120.0 =   -0.29614 +j  -0.51276
1949     2          0.56397 /_  120.0 =   -0.28191 +j   0.48845
1949     3          0.60439 /_    0.0 =    0.60439 +j -9.1641E-005

ELEMENT = "Line.3113332_ID3629"
1949     1          0.59146 /_   60.0 =    0.29581 +j   0.51218
1949     2           0.5633 /_  -60.0 =    0.28158 +j  -0.48787
1949     3          0.60372 /_  180.0 =   -0.60372 +j 9.1602E-005
------------
2216     1          0.59146 /_ -120.0 =   -0.29581 +j  -0.51218
2216     2           0.5633 /_  120.0 =   -0.28158 +j   0.48787
2216     3          0.60372 /_    0.0 =    0.60372 +j -9.1601E-005

ELEMENT = "Line.3113373_ID3630"
2215     1          0.59079 /_ -120.0 =   -0.29547 +j   -0.5116
2215     2          0.56263 /_  120.0 =   -0.28125 +j   0.48729
2215     3          0.60305 /_    0.0 =    0.60305 +j -9.156E-005
------------
2216     1          0.59079 /_   60.0 =    0.29547 +j    0.5116
2216     2          0.56263 /_  -60.0 =    0.28125 +j  -0.48729
2216     3          0.60305 /_  180.0 =   -0.60305 +j 9.1562E-005

ELEMENT = "Line.3113373_ID3631"
1950     1          0.59012 /_ -120.0 =   -0.29514 +j  -0.51102
1950     2          0.56196 /_  120.0 =   -0.28091 +j   0.48671
1950     3          0.60238 /_    0.0 =    0.60238 +j -9.1519E-005
------------
2215     1          0.59012 /_   60.0 =    0.29514 +j   0.51102
2215     2          0.56196 /_  -60.0 =    0.28091 +j  -0.48671
2215     3          0.60238 /_  180.0 =   -0.60238 +j 9.152E-005

ELEMENT = "Line.301855607_ID3632"
1950     1          0.58945 /_   60.0 =     0.2948 +j   0.51044
1950     2          0.56129 /_  -60.0 =    0.28058 +j  -0.48613
1950     3          0.60171 /_  180.0 =   -0.60171 +j 9.1477E-005
------------
1951     1          0.58945 /_ -120.0 =    -0.2948 +j  -0.51044
1951     2          0.56129 /_  120.0 =   -0.28058 +j   0.48613
1951     3          0.60171 /_    0.0 =    0.60171 +j -9.1476E-005

ELEMENT = "Line.3113506_ID3633"
1951     1          0.58878 /_   60.0 =    0.29447 +j   0.50986
1951     2          0.56062 /_  -60.0 =    0.28024 +j  -0.48555
1951     3          0.60104 /_  180.0 =   -0.60104 +j 9.1434E-005
------------
2222     1          0.58878 /_ -120.0 =   -0.29447 +j  -0.50986
2222     2          0.56062 /_  120.0 =   -0.28024 +j   0.48555
2222     3          0.60104 /_    0.0 =    0.60104 +j -9.1433E-005

ELEMENT = "Line.3113600_ID3634"
2222     1          0.58811 /_   60.0 =    0.29413 +j   0.50928
2222     2          0.55995 /_  -60.0 =    0.27991 +j  -0.48497
2222     3          0.60037 /_  180.0 =   -0.60037 +j 9.1391E-005
------------
1756     1          0.58811 /_ -120.0 =   -0.29413 +j  -0.50928
1756     2          0.55995 /_  120.0 =   -0.27991 +j   0.48497
1756     3          0.60037 /_    0.0 =    0.60037 +j -9.139E-005

ELEMENT = "Line.3113642_ID3635"
1752     1          0.58744 /_ -120.0 =    -0.2938 +j   -0.5087
1752     2          0.55928 /_  120.0 =   -0.27957 +j   0.48439
1752     3           0.5997 /_    0.0 =     0.5997 +j -9.1346E-005
------------
1756     1          0.58744 /_   60.0 =     0.2938 +j    0.5087
1756     2          0.55928 /_  -60.0 =    0.27957 +j  -0.48439
1756     3           0.5997 /_  180.0 =    -0.5997 +j 9.1346E-005

ELEMENT = "Line.12564008_ID3638"
1803     1        0.0010041 /_ -120.0 =  -0.0005021 +j -0.00086952
1803     2        0.0010041 /_  120.0 =  -0.00050198 +j 0.00086958
1803     3        0.0010041 /_    0.0 =  0.0010041 +j -6.6997E-008
------------
1752     1        0.0010041 /_   60.0 =  0.0005021 +j 0.00086952
1752     2        0.0010041 /_  -60.0 =  0.00050198 +j -0.00086958
1752     3        0.0010041 /_  180.0 =  -0.0010041 +j 6.7346E-008

ELEMENT = "Line.3113660_ID3637"
1753     1       0.00033469 /_ -120.0 =  -0.00016737 +j -0.00028984
1753     2       0.00033469 /_  120.0 =  -0.00016733 +j 0.00028986
1753     3       0.00033469 /_    0.0 =  0.00033469 +j -2.2235E-008
------------
1752     1       0.00033469 /_   60.0 =  0.00016737 +j 0.00028984
1752     2       0.00033469 /_  -60.0 =  0.00016733 +j -0.00028986
1752     3       0.00033469 /_  180.0 =  -0.00033469 +j 2.2468E-008

ELEMENT = "Line.3113661_ID3636"
1751     1          0.58477 /_ -120.0 =   -0.29246 +j  -0.50638
1751     2          0.55661 /_  120.0 =   -0.27823 +j   0.48208
1751     3          0.59703 /_    0.0 =    0.59703 +j -9.1167E-005
------------
1752     1          0.58477 /_   60.0 =    0.29246 +j   0.50638
1752     2          0.55661 /_  -60.0 =    0.27823 +j  -0.48208
1752     3          0.59703 /_  180.0 =   -0.59703 +j 9.1167E-005

ELEMENT = "Line.3113672_ID3639"
1749     1           0.5841 /_ -120.0 =   -0.29212 +j   -0.5058
1749     2          0.55594 /_  120.0 =    -0.2779 +j    0.4815
1749     3          0.59636 /_    0.0 =    0.59636 +j -9.1121E-005
------------
1751     1           0.5841 /_   60.0 =    0.29212 +j    0.5058
1751     2          0.55594 /_  -60.0 =     0.2779 +j   -0.4815
1751     3          0.59636 /_  180.0 =   -0.59636 +j 9.1123E-005

ELEMENT = "Line.3113648_ID3641"
1803     1       0.00033469 /_   60.0 =  0.00016736 +j 0.00028984
1803     2       0.00033469 /_  -60.0 =  0.00016733 +j -0.00028986
1803     3       0.00033469 /_  180.0 =  -0.00033469 +j 2.3465E-008
------------
1755     1       0.00033469 /_ -120.0 =  -0.00016737 +j -0.00028984
1755     2       0.00033469 /_  120.0 =  -0.00016733 +j 0.00028986
1755     3       0.00033469 /_    0.0 =  0.00033469 +j -2.1319E-008

ELEMENT = "Line.3113727_ID3640"
1749     1          0.58343 /_   60.0 =    0.29179 +j   0.50522
1749     2          0.55527 /_  -60.0 =    0.27756 +j  -0.48092
1749     3          0.59569 /_  180.0 =   -0.59569 +j 9.1076E-005
------------
1750     1          0.58343 /_ -120.0 =   -0.29179 +j  -0.50522
1750     2          0.55527 /_  120.0 =   -0.27756 +j   0.48092
1750     3          0.59569 /_    0.0 =    0.59569 +j -9.1076E-005

ELEMENT = "Line.481321479_ID3642"
1748     1          0.58276 /_ -120.0 =   -0.29145 +j  -0.50464
1748     2           0.5546 /_  120.0 =   -0.27723 +j   0.48034
1748     3          0.59502 /_    0.0 =    0.59502 +j -9.1029E-005
------------
1750     1          0.58276 /_   60.0 =    0.29145 +j   0.50464
1750     2           0.5546 /_  -60.0 =    0.27723 +j  -0.48034
1750     3          0.59502 /_  180.0 =   -0.59502 +j 9.103E-005

ELEMENT = "Line.3113742_ID3643"
1748     1          0.58209 /_   60.0 =    0.29112 +j   0.50406
1748     2          0.55393 /_  -60.0 =    0.27689 +j  -0.47976
1748     3          0.59435 /_  180.0 =   -0.59435 +j 9.0983E-005
------------
1747     1          0.58209 /_ -120.0 =   -0.29112 +j  -0.50406
1747     2          0.55393 /_  120.0 =   -0.27689 +j   0.47976
1747     3          0.59435 /_    0.0 =    0.59435 +j -9.0983E-005

ELEMENT = "Line.3113742_ID3644"
680      1          0.58142 /_ -120.0 =   -0.29079 +j  -0.50348
680      2          0.55326 /_  120.0 =   -0.27656 +j   0.47918
680      3          0.59368 /_    0.0 =    0.59368 +j -9.0934E-005
------------
1747     1          0.58142 /_   60.0 =    0.29079 +j   0.50348
1747     2          0.55326 /_  -60.0 =    0.27656 +j  -0.47918
1747     3          0.59368 /_  180.0 =   -0.59368 +j 9.0937E-005

ELEMENT = "Line.481322705_ID3645"
678      1          0.58075 /_ -120.0 =   -0.29045 +j   -0.5029
678      2          0.55259 /_  120.0 =   -0.27623 +j    0.4786
678      3          0.59301 /_    0.0 =    0.59301 +j -9.0887E-005
------------
680      1          0.58075 /_   60.0 =    0.29045 +j    0.5029
680      2          0.55259 /_  -60.0 =    0.27623 +j   -0.4786
680      3          0.59301 /_  180.0 =   -0.59301 +j 9.0887E-005

ELEMENT = "Line.481322705_ID3646"
679      1          0.58008 /_ -120.0 =   -0.29012 +j  -0.50232
679      2          0.55192 /_  120.0 =   -0.27589 +j   0.47802
679      3          0.59234 /_    0.0 =    0.59234 +j -9.0837E-005
------------
678      1          0.58008 /_   60.0 =    0.29012 +j   0.50232
678      2          0.55192 /_  -60.0 =    0.27589 +j  -0.47802
678      3          0.59234 /_  180.0 =   -0.59234 +j 9.0838E-005

ELEMENT = "Line.3113864_ID3647"
1514     1          0.57941 /_ -120.0 =   -0.28978 +j  -0.50174
1514     2          0.55125 /_  120.0 =   -0.27556 +j   0.47744
1514     3          0.59167 /_    0.0 =    0.59167 +j -9.0787E-005
------------
679      1          0.57941 /_   60.0 =    0.28978 +j   0.50174
679      2          0.55125 /_  -60.0 =    0.27556 +j  -0.47744
679      3          0.59167 /_  180.0 =   -0.59167 +j 9.0789E-005

ELEMENT = "Line.3113901_ID3648"
676      1          0.57874 /_ -120.0 =   -0.28945 +j  -0.50116
676      2          0.55058 /_  120.0 =   -0.27522 +j   0.47686
676      3            0.591 /_    0.0 =      0.591 +j -9.0736E-005
------------
1514     1          0.57874 /_   60.0 =    0.28945 +j   0.50116
1514     2          0.55058 /_  -60.0 =    0.27522 +j  -0.47686
1514     3            0.591 /_  180.0 =     -0.591 +j 9.0738E-005

ELEMENT = "Line.481322717_ID3649"
676      1          0.57807 /_   60.0 =    0.28911 +j   0.50058
676      2          0.54991 /_  -60.0 =    0.27489 +j  -0.47628
676      3          0.59033 /_  180.0 =   -0.59033 +j 9.0685E-005
------------
677      1          0.57807 /_ -120.0 =   -0.28911 +j  -0.50058
677      2          0.54991 /_  120.0 =   -0.27489 +j   0.47628
677      3          0.59033 /_    0.0 =    0.59033 +j -9.0685E-005

ELEMENT = "Line.3113961_ID3650"
677      1           0.5774 /_   60.0 =    0.28878 +j       0.5
677      2          0.54924 /_  -60.0 =    0.27455 +j   -0.4757
677      3          0.58966 /_  180.0 =   -0.58966 +j 9.0633E-005
------------
1065     1           0.5774 /_ -120.0 =   -0.28878 +j      -0.5
1065     2          0.54924 /_  120.0 =   -0.27455 +j    0.4757
1065     3          0.58966 /_    0.0 =    0.58966 +j -9.0632E-005

ELEMENT = "Line.3113961_ID3651"
1064     1          0.57673 /_ -120.0 =   -0.28844 +j  -0.49942
1064     2          0.54857 /_  120.0 =   -0.27422 +j   0.47512
1064     3          0.58899 /_    0.0 =    0.58899 +j -9.0579E-005
------------
1065     1          0.57673 /_   60.0 =    0.28844 +j   0.49942
1065     2          0.54857 /_  -60.0 =    0.27422 +j  -0.47512
1065     3          0.58899 /_  180.0 =   -0.58899 +j 9.0581E-005

ELEMENT = "Line.3114078_ID3652"
1064     1          0.57606 /_   60.0 =    0.28811 +j   0.49884
1064     2           0.5479 /_  -60.0 =    0.27388 +j  -0.47454
1064     3          0.58832 /_  180.0 =   -0.58832 +j 9.0529E-005
------------
1063     1          0.57606 /_ -120.0 =   -0.28811 +j  -0.49884
1063     2           0.5479 /_  120.0 =   -0.27388 +j   0.47454
1063     3          0.58832 /_    0.0 =    0.58832 +j -9.0524E-005

ELEMENT = "Line.12564508_ID3654"
1063     1        0.0076985 /_   60.0 =  0.0038498 +j 0.0066668
1063     2        0.0076985 /_  -60.0 =  0.0038487 +j -0.0066674
1063     3        0.0076986 /_  180.0 =  -0.0076986 +j 6.4727E-007
------------
1802     1        0.0076985 /_ -120.0 =  -0.0038498 +j -0.0066668
1802     2        0.0076985 /_  120.0 =  -0.0038487 +j 0.0066674
1802     3        0.0076986 /_    0.0 =  0.0076986 +j -6.4686E-007

ELEMENT = "Line.313964664_ID3653"
1063     1          0.56736 /_   60.0 =    0.28376 +j   0.49131
1063     2           0.5392 /_  -60.0 =    0.26953 +j    -0.467
1063     3          0.57962 /_  180.0 =   -0.57962 +j 8.9796E-005
------------
1611     1          0.56736 /_ -120.0 =   -0.28376 +j  -0.49131
1611     2           0.5392 /_  120.0 =   -0.26953 +j     0.467
1611     3          0.57962 /_    0.0 =    0.57962 +j -8.9796E-005

ELEMENT = "Line.313964664_ID3655"
1611     1          0.56669 /_   60.0 =    0.28342 +j   0.49073
1611     2          0.53853 /_  -60.0 =     0.2692 +j  -0.46642
1611     3          0.57895 /_  180.0 =   -0.57895 +j 8.9742E-005
------------
1608     1          0.56669 /_ -120.0 =   -0.28342 +j  -0.49073
1608     2          0.53853 /_  120.0 =    -0.2692 +j   0.46642
1608     3          0.57895 /_    0.0 =    0.57895 +j -8.9738E-005

ELEMENT = "Line.3114133_ID3657"
924      1        0.0070291 /_ -120.0 =  -0.0035151 +j -0.0060871
924      2        0.0070291 /_  120.0 =  -0.003514 +j 0.0060876
924      3        0.0070291 /_    0.0 =  0.0070291 +j -5.9041E-007
------------
1802     1        0.0070291 /_   60.0 =  0.0035151 +j 0.0060871
1802     2        0.0070291 /_  -60.0 =   0.003514 +j -0.0060876
1802     3        0.0070291 /_  180.0 =  -0.0070291 +j 5.9164E-007

ELEMENT = "Line.313964587_ID3656"
1608     1          0.56602 /_   60.0 =    0.28309 +j   0.49015
1608     2          0.53786 /_  -60.0 =    0.26886 +j  -0.46584
1608     3          0.57828 /_  180.0 =   -0.57828 +j 8.9683E-005
------------
926      1          0.56602 /_ -120.0 =   -0.28309 +j  -0.49015
926      2          0.53786 /_  120.0 =   -0.26886 +j   0.46584
926      3          0.57828 /_    0.0 =    0.57828 +j -8.9682E-005

ELEMENT = "Line.3114154_ID3659"
923      1        0.0063597 /_ -120.0 =  -0.0031803 +j -0.0055074
923      2        0.0063597 /_  120.0 =  -0.0031794 +j 0.0055079
923      3        0.0063597 /_    0.0 =  0.0063597 +j -5.3368E-007
------------
924      1        0.0063597 /_   60.0 =  0.0031803 +j 0.0055074
924      2        0.0063597 /_  -60.0 =  0.0031794 +j -0.0055079
924      3        0.0063597 /_  180.0 =  -0.0063597 +j 5.3651E-007

ELEMENT = "Line.3114123_ID3658"
926      1          0.56535 /_   60.0 =    0.28275 +j   0.48957
926      2          0.53719 /_  -60.0 =    0.26853 +j  -0.46526
926      3          0.57761 /_  180.0 =   -0.57761 +j 8.9624E-005
------------
927      1          0.56535 /_ -120.0 =   -0.28275 +j  -0.48957
927      2          0.53719 /_  120.0 =   -0.26853 +j   0.46526
927      3          0.57761 /_    0.0 =    0.57761 +j -8.9623E-005

ELEMENT = "Line.3114154_ID3661"
923      1        0.0056903 /_   60.0 =  0.0028456 +j 0.0049277
923      2        0.0056903 /_  -60.0 =  0.0028447 +j -0.0049281
923      3        0.0056903 /_  180.0 =  -0.0056903 +j 4.7966E-007
------------
920      1        0.0056903 /_ -120.0 =  -0.0028456 +j -0.0049277
920      2        0.0056903 /_  120.0 =  -0.0028447 +j 0.0049281
920      3        0.0056903 /_    0.0 =  0.0056903 +j -4.7834E-007

ELEMENT = "Line.313964597_ID3660"
921      1          0.56468 /_ -120.0 =   -0.28242 +j  -0.48899
921      2          0.53652 /_  120.0 =   -0.26819 +j   0.46468
921      3          0.57694 /_    0.0 =    0.57694 +j -8.9565E-005
------------
927      1          0.56468 /_   60.0 =    0.28242 +j   0.48899
927      2          0.53652 /_  -60.0 =    0.26819 +j  -0.46468
927      3          0.57694 /_  180.0 =   -0.57694 +j 8.9566E-005

ELEMENT = "Line.3114228_ID3663"
919      1        0.0050209 /_ -120.0 =  -0.0025108 +j -0.004348
919      2        0.0050209 /_  120.0 =  -0.0025101 +j 0.0043484
919      3        0.0050209 /_    0.0 =  0.0050209 +j -4.2243E-007
------------
920      1        0.0050209 /_   60.0 =  0.0025108 +j  0.004348
920      2        0.0050209 /_  -60.0 =  0.0025101 +j -0.0043484
920      3        0.0050209 /_  180.0 =  -0.0050209 +j 4.2327E-007

ELEMENT = "Line.3114217_ID3662"
921      1          0.56401 /_   60.0 =    0.28208 +j   0.48841
921      2          0.53586 /_  -60.0 =    0.26786 +j   -0.4641
921      3          0.57627 /_  180.0 =   -0.57627 +j 8.9508E-005
------------
922      1          0.56401 /_ -120.0 =   -0.28208 +j  -0.48841
922      2          0.53586 /_  120.0 =   -0.26786 +j    0.4641
922      3          0.57627 /_    0.0 =    0.57627 +j -8.9504E-005

ELEMENT = "Line.3114239_ID3665"
919      1        0.0043515 /_   60.0 =  0.0021761 +j 0.0037683
919      2        0.0043515 /_  -60.0 =  0.0021754 +j -0.0037686
919      3        0.0043515 /_  180.0 =  -0.0043515 +j 3.6791E-007
------------
674      1        0.0043515 /_ -120.0 =  -0.0021761 +j -0.0037683
674      2        0.0043515 /_  120.0 =  -0.0021754 +j 0.0037686
674      3        0.0043515 /_    0.0 =  0.0043515 +j -3.6551E-007

ELEMENT = "Line.313964437_ID3664"
1609     1          0.56335 /_ -120.0 =   -0.28175 +j  -0.48783
1609     2          0.53519 /_  120.0 =   -0.26752 +j   0.46352
1609     3           0.5756 /_    0.0 =     0.5756 +j -8.9445E-005
------------
922      1          0.56335 /_   60.0 =    0.28175 +j   0.48783
922      2          0.53519 /_  -60.0 =    0.26752 +j  -0.46352
922      3           0.5756 /_  180.0 =    -0.5756 +j 8.9446E-005

ELEMENT = "Line.481322729_ID3667"
674      1        0.0036821 /_   60.0 =  0.0018413 +j 0.0031886
674      2        0.0036821 /_  -60.0 =  0.0018408 +j -0.0031889
674      3        0.0036821 /_  180.0 =  -0.0036821 +j 3.1248E-007
------------
675      1        0.0036821 /_ -120.0 =  -0.0018413 +j -0.0031886
675      2        0.0036821 /_  120.0 =  -0.0018408 +j 0.0031889
675      3        0.0036821 /_    0.0 =  0.0036821 +j -3.0848E-007

ELEMENT = "Line.313964654_ID3666"
1609     1          0.56268 /_   60.0 =    0.28141 +j   0.48725
1609     2          0.53452 /_  -60.0 =    0.26719 +j  -0.46294
1609     3          0.57493 /_  180.0 =   -0.57493 +j 8.9385E-005
------------
1610     1          0.56268 /_ -120.0 =   -0.28141 +j  -0.48725
1610     2          0.53452 /_  120.0 =   -0.26719 +j   0.46294
1610     3          0.57493 /_    0.0 =    0.57493 +j -8.9384E-005

ELEMENT = "Line.3114250_ID3669"
675      1        0.0030127 /_   60.0 =  0.0015066 +j 0.0026089
675      2        0.0030127 /_  -60.0 =  0.0015061 +j -0.0026092
675      3        0.0030127 /_  180.0 =  -0.0030127 +j 2.5544E-007
------------
783      1        0.0030127 /_ -120.0 =  -0.0015066 +j -0.0026089
783      2        0.0030127 /_  120.0 =  -0.0015061 +j 0.0026092
783      3        0.0030127 /_    0.0 =  0.0030127 +j -2.5292E-007

ELEMENT = "Line.313964654_ID3668"
1610     1          0.56201 /_   60.0 =    0.28108 +j   0.48667
1610     2          0.53385 /_  -60.0 =    0.26686 +j  -0.46236
1610     3          0.57427 /_  180.0 =   -0.57427 +j 8.9325E-005
------------
1257     1          0.56201 /_ -120.0 =   -0.28108 +j  -0.48667
1257     2          0.53385 /_  120.0 =   -0.26686 +j   0.46236
1257     3          0.57427 /_    0.0 =    0.57427 +j -8.9322E-005

ELEMENT = "Line.3114250_ID3671"
126      1        0.0023429 /_ -120.0 =  -0.0011716 +j -0.0020289
126      2        0.0023429 /_  120.0 =  -0.0011713 +j 0.0020291
126      3        0.0023429 /_    0.0 =  0.0023429 +j -1.9728E-007
------------
783      1        0.0023429 /_   60.0 =  0.0011716 +j 0.0020289
783      2        0.0023429 /_  -60.0 =  0.0011713 +j -0.0020291
783      3        0.0023429 /_  180.0 =  -0.0023429 +j 1.9823E-007

ELEMENT = "Line.12513397_ID3670"
1257     1          0.56134 /_   60.0 =    0.28074 +j   0.48609
1257     2          0.53318 /_  -60.0 =    0.26652 +j  -0.46178
1257     3           0.5736 /_  180.0 =    -0.5736 +j 8.9262E-005
------------
1258     1          0.56134 /_ -120.0 =   -0.28074 +j  -0.48609
1258     2          0.53318 /_  120.0 =   -0.26652 +j   0.46178
1258     3           0.5736 /_    0.0 =     0.5736 +j -8.926E-005

ELEMENT = "Line.4882989_ID6138"
2392     1      4.0746E-005 /_   30.0 =  3.5289E-005 +j 2.037E-005
2392     2      4.0746E-005 /_  -90.0 =  -3.6666E-009 +j -4.0746E-005
2392     3      4.0746E-005 /_  150.0 =  -3.5286E-005 +j 2.0376E-005
------------
2637     1      4.0746E-005 /_ -150.0 =  -3.5289E-005 +j -2.037E-005
2637     2      4.0746E-005 /_   90.0 =  3.6659E-009 +j 4.0746E-005
2637     3      4.0746E-005 /_  -30.0 =  3.5286E-005 +j -2.0376E-005

ELEMENT = "Line.4882988_ID6133"
2392     1      2.9105E-005 /_   30.0 =  2.5207E-005 +j 1.455E-005
2392     2      2.9104E-005 /_  -90.0 =  -2.5841E-009 +j -2.9104E-005
2392     3      2.9105E-005 /_  150.0 =  -2.5204E-005 +j 1.4554E-005
------------
2520     1      2.9105E-005 /_ -150.0 =  -2.5207E-005 +j -1.455E-005
2520     2      2.9104E-005 /_   90.0 =  2.5839E-009 +j 2.9104E-005
2520     3      2.9105E-005 /_  -30.0 =  2.5204E-005 +j -1.4554E-005

ELEMENT = "Line.227599230_ID3672"
124      1        0.0016735 /_ -120.0 =  -0.00083688 +j -0.0014492
124      2        0.0016735 /_  120.0 =  -0.00083663 +j 0.0014494
124      3        0.0016735 /_    0.0 =  0.0016735 +j -1.4037E-007
------------
126      1        0.0016735 /_   60.0 =  0.00083688 +j 0.0014492
126      2        0.0016735 /_  -60.0 =  0.00083663 +j -0.0014494
126      3        0.0016735 /_  180.0 =  -0.0016735 +j 1.4239E-007

ELEMENT = "Line.4883011_ID6135"
2635     1      2.9105E-005 /_ -150.0 =  -2.5207E-005 +j -1.455E-005
2635     2      2.9104E-005 /_   90.0 =  2.6922E-009 +j 2.9104E-005
2635     3      2.9104E-005 /_  -30.0 =  2.5204E-005 +j -1.4554E-005
------------
2637     1      2.9105E-005 /_   30.0 =  2.5207E-005 +j 1.455E-005
2637     2      2.9104E-005 /_  -90.0 =  -2.6936E-009 +j -2.9104E-005
2637     3      2.9104E-005 /_  150.0 =  -2.5204E-005 +j 1.4554E-005

ELEMENT = "Line.4882988_ID6132"
2520     1      1.7463E-005 /_   30.0 =  1.5124E-005 +j 8.7301E-006
2520     2      1.7463E-005 /_  -90.0 =  -1.4663E-009 +j -1.7463E-005
2520     3      1.7463E-005 /_  150.0 =  -1.5122E-005 +j 8.7325E-006
------------
2521     1      1.7463E-005 /_ -150.0 =  -1.5124E-005 +j -8.7301E-006
2521     2      1.7463E-005 /_   90.0 =  1.4652E-009 +j 1.7463E-005
2521     3      1.7463E-005 /_  -30.0 =  1.5122E-005 +j -8.7325E-006

ELEMENT = "Line.227599213_ID3675"
124      1        0.0003347 /_   60.0 =  0.00016738 +j 0.00028985
124      2        0.0003347 /_  -60.0 =  0.00016733 +j -0.00028987
124      3        0.0003347 /_  180.0 =  -0.0003347 +j 2.8289E-008
------------
127      1        0.0003347 /_ -120.0 =  -0.00016738 +j -0.00028985
127      2        0.0003347 /_  120.0 =  -0.00016733 +j 0.00028987
127      3        0.0003347 /_    0.0 =  0.0003347 +j -2.8056E-008

ELEMENT = "Line.227599230_ID3674"
124      1        0.0003347 /_   60.0 =  0.00016737 +j 0.00028985
124      2        0.0003347 /_  -60.0 =  0.00016732 +j -0.00028987
124      3        0.0003347 /_  180.0 =  -0.0003347 +j 2.9802E-008
------------
125      1        0.0003347 /_ -120.0 =  -0.00016737 +j -0.00028985
125      2        0.0003347 /_  120.0 =  -0.00016732 +j 0.00028987
125      3        0.0003347 /_    0.0 =  0.0003347 +j -2.9802E-008

ELEMENT = "Line.3114329_ID3673"
778      1          0.56067 /_ -120.0 =   -0.28041 +j  -0.48551
778      2          0.53251 /_  120.0 =   -0.26619 +j    0.4612
778      3          0.57293 /_    0.0 =    0.57293 +j -8.9196E-005
------------
1258     1          0.56067 /_   60.0 =    0.28041 +j   0.48551
1258     2          0.53251 /_  -60.0 =    0.26619 +j   -0.4612
1258     3          0.57293 /_  180.0 =   -0.57293 +j 8.9197E-005

ELEMENT = "Line.4883011_ID6134"
2635     1      1.7463E-005 /_   30.0 =  1.5124E-005 +j 8.7301E-006
2635     2      1.7463E-005 /_  -90.0 =  -1.5843E-009 +j -1.7463E-005
2635     3      1.7463E-005 /_  150.0 =  -1.5122E-005 +j 8.7326E-006
------------
2636     1      1.7463E-005 /_ -150.0 =  -1.5124E-005 +j -8.7301E-006
2636     2      1.7463E-005 /_   90.0 =  1.5848E-009 +j 1.7463E-005
2636     3      1.7463E-005 /_  -30.0 =  1.5122E-005 +j -8.7326E-006

ELEMENT = "Line.227599331_ID6136"
2521     1      5.8209E-006 /_   30.0 =  5.0413E-006 +j 2.91E-006
2521     2      5.8209E-006 /_  -90.0 =  -4.8954E-010 +j -5.8209E-006
2521     3      5.8209E-006 /_  150.0 =  -5.0408E-006 +j 2.9108E-006
------------
2662     1      5.8209E-006 /_ -150.0 =  -5.0413E-006 +j -2.91E-006
2662     2      5.8209E-006 /_   90.0 =  4.8908E-010 +j 5.8209E-006
2662     3      5.8209E-006 /_  -30.0 =  5.0408E-006 +j -2.9108E-006

ELEMENT = "Line.3114329_ID3676"
777      1             0.56 /_ -120.0 =   -0.28007 +j  -0.48493
777      2          0.53184 /_  120.0 =   -0.26585 +j   0.46063
777      3          0.57226 /_    0.0 =    0.57226 +j -8.9132E-005
------------
778      1             0.56 /_   60.0 =    0.28007 +j   0.48493
778      2          0.53184 /_  -60.0 =    0.26585 +j  -0.46063
778      3          0.57226 /_  180.0 =   -0.57226 +j 8.9133E-005

ELEMENT = "Line.96937187_ID6137"
2636     1      5.8209E-006 /_   30.0 =  5.0413E-006 +j 2.91E-006
2636     2      5.8209E-006 /_  -90.0 =  -4.8863E-010 +j -5.8209E-006
2636     3      5.8209E-006 /_  150.0 =  -5.0408E-006 +j 2.9109E-006
------------
2766     1      5.8209E-006 /_ -150.0 =  -5.0413E-006 +j -2.91E-006
2766     2      5.8209E-006 /_   90.0 =  4.8772E-010 +j 5.8209E-006
2766     3      5.8209E-006 /_  -30.0 =  5.0408E-006 +j -2.9109E-006

ELEMENT = "Line.3114356_ID3677"
777      1          0.55933 /_   60.0 =    0.27974 +j   0.48435
777      2          0.53117 /_  -60.0 =    0.26552 +j  -0.46005
777      3          0.57159 /_  180.0 =   -0.57159 +j 8.9068E-005
------------
772      1          0.55933 /_ -120.0 =   -0.27974 +j  -0.48435
772      2          0.53117 /_  120.0 =   -0.26552 +j   0.46005
772      3          0.57159 /_    0.0 =    0.57159 +j -8.9068E-005

ELEMENT = "Line.12564786_ID3679"
772      1        0.0050207 /_   60.0 =  0.0025107 +j 0.0043478
772      2        0.0050206 /_  -60.0 =  0.0025099 +j -0.0043482
772      3        0.0050207 /_  180.0 =  -0.0050207 +j 4.8609E-007
------------
1801     1        0.0050207 /_ -120.0 =  -0.0025107 +j -0.0043478
1801     2        0.0050206 /_  120.0 =  -0.0025099 +j 0.0043482
1801     3        0.0050207 /_    0.0 =  0.0050207 +j -4.8551E-007

ELEMENT = "Line.3114368_ID3678"
772      1           0.5533 /_   60.0 =    0.27673 +j   0.47913
772      2          0.52514 /_  -60.0 =     0.2625 +j  -0.45483
772      3          0.56556 /_  180.0 =   -0.56556 +j 8.8487E-005
------------
773      1           0.5533 /_ -120.0 =   -0.27673 +j  -0.47913
773      2          0.52514 /_  120.0 =    -0.2625 +j   0.45483
773      3          0.56556 /_    0.0 =    0.56556 +j -8.8484E-005

ELEMENT = "Line.481321491_ID3680"
773      1          0.55263 /_   60.0 =    0.27639 +j   0.47855
773      2          0.52448 /_  -60.0 =    0.26217 +j  -0.45425
773      3          0.56489 /_  180.0 =   -0.56489 +j 8.842E-005
------------
2024     1          0.55263 /_ -120.0 =   -0.27639 +j  -0.47855
2024     2          0.52448 /_  120.0 =   -0.26217 +j   0.45425
2024     3          0.56489 /_    0.0 =    0.56489 +j -8.8419E-005

ELEMENT = "Line.3114358_ID3682"
774      1        0.0043512 /_ -120.0 =  -0.002176 +j -0.0037681
774      2        0.0043512 /_  120.0 =  -0.0021753 +j 0.0037684
774      3        0.0043513 /_    0.0 =  0.0043513 +j -4.2019E-007
------------
1801     1        0.0043512 /_   60.0 =   0.002176 +j 0.0037681
1801     2        0.0043512 /_  -60.0 =  0.0021753 +j -0.0037684
1801     3        0.0043513 /_  180.0 =  -0.0043513 +j 4.2226E-007

ELEMENT = "Line.650146080_ID3681"
2024     1          0.55197 /_   60.0 =    0.27606 +j   0.47797
2024     2          0.52381 /_  -60.0 =    0.26184 +j  -0.45367
2024     3          0.56422 /_  180.0 =   -0.56422 +j 8.8355E-005
------------
2039     1          0.55197 /_ -120.0 =   -0.27606 +j  -0.47797
2039     2          0.52381 /_  120.0 =   -0.26184 +j   0.45367
2039     3          0.56422 /_    0.0 =    0.56422 +j -8.8351E-005

ELEMENT = "Line.3114358_ID3684"
774      1        0.0036818 /_   60.0 =  0.0018412 +j 0.0031884
774      2        0.0036818 /_  -60.0 =  0.0018406 +j -0.0031887
774      3        0.0036818 /_  180.0 =  -0.0036818 +j 3.575E-007
------------
775      1        0.0036818 /_ -120.0 =  -0.0018412 +j -0.0031884
775      2        0.0036818 /_  120.0 =  -0.0018406 +j 0.0031887
775      3        0.0036818 /_    0.0 =  0.0036818 +j -3.5553E-007

ELEMENT = "Line.650146072_ID3683"
619      1           0.5513 /_ -120.0 =   -0.27572 +j  -0.47739
619      2          0.52314 /_  120.0 =    -0.2615 +j   0.45309
619      3          0.56355 /_    0.0 =    0.56355 +j -8.8284E-005
------------
2039     1           0.5513 /_   60.0 =    0.27572 +j   0.47739
2039     2          0.52314 /_  -60.0 =     0.2615 +j  -0.45309
2039     3          0.56355 /_  180.0 =   -0.56355 +j 8.8285E-005

ELEMENT = "Line.3114326_ID3686"
780      1        0.0030124 /_ -120.0 =  -0.0015064 +j -0.0026087
780      2        0.0030124 /_  120.0 =  -0.0015059 +j 0.0026089
780      3        0.0030124 /_    0.0 =  0.0030124 +j -2.9051E-007
------------
775      1        0.0030124 /_   60.0 =  0.0015064 +j 0.0026087
775      2        0.0030124 /_  -60.0 =  0.0015059 +j -0.0026089
775      3        0.0030124 /_  180.0 =  -0.0030124 +j 2.9294E-007

ELEMENT = "Line.3114420_ID3685"
619      1          0.55063 /_   60.0 =    0.27539 +j   0.47681
619      2          0.52247 /_  -60.0 =    0.26117 +j  -0.45251
619      3          0.56289 /_  180.0 =   -0.56289 +j 8.8217E-005
------------
620      1          0.55063 /_ -120.0 =   -0.27539 +j  -0.47681
620      2          0.52247 /_  120.0 =   -0.26117 +j   0.45251
620      3          0.56289 /_    0.0 =    0.56289 +j -8.8216E-005

ELEMENT = "Line.3114326_ID3689"
672      1         0.002343 /_ -120.0 =  -0.0011717 +j -0.002029
672      2         0.002343 /_  120.0 =  -0.0011713 +j 0.0020292
672      3         0.002343 /_    0.0 =   0.002343 +j -2.2558E-007
------------
780      1         0.002343 /_   60.0 =  0.0011717 +j  0.002029
780      2         0.002343 /_  -60.0 =  0.0011713 +j -0.0020292
780      3         0.002343 /_  180.0 =  -0.002343 +j 2.2827E-007

ELEMENT = "Line.12565060_ID3688"
620      1         0.011712 /_   60.0 =   0.005857 +j  0.010142
620      2         0.011712 /_  -60.0 =  0.0058549 +j -0.010143
620      3         0.011712 /_  180.0 =  -0.011712 +j 1.2055E-006
------------
1800     1         0.011712 /_ -120.0 =  -0.005857 +j -0.010142
1800     2         0.011712 /_  120.0 =  -0.0058549 +j  0.010143
1800     3         0.011712 /_    0.0 =   0.011712 +j -1.205E-006

ELEMENT = "Line.481322753_ID3687"
612      1          0.53791 /_ -120.0 =   -0.26903 +j   -0.4658
612      2          0.50975 /_  120.0 =   -0.25481 +j    0.4415
612      3          0.55017 /_    0.0 =    0.55017 +j -8.6907E-005
------------
620      1          0.53791 /_   60.0 =    0.26903 +j    0.4658
620      2          0.50975 /_  -60.0 =    0.25481 +j   -0.4415
620      3          0.55017 /_  180.0 =   -0.55017 +j 8.691E-005

ELEMENT = "Line.481322741_ID3691"
672      1        0.0016736 /_   60.0 =  0.00083691 +j 0.0014493
672      2        0.0016735 /_  -60.0 =  0.00083664 +j -0.0014494
672      3        0.0016736 /_  180.0 =  -0.0016736 +j 1.6419E-007
------------
673      1        0.0016736 /_ -120.0 =  -0.00083692 +j -0.0014493
673      2        0.0016735 /_  120.0 =  -0.00083664 +j 0.0014494
673      3        0.0016736 /_    0.0 =  0.0016736 +j -1.5998E-007

ELEMENT = "Line.3114562_ID3690"
612      1          0.53724 /_   60.0 =    0.26869 +j   0.46522
612      2          0.50908 /_  -60.0 =    0.25447 +j  -0.44092
612      3           0.5495 /_  180.0 =    -0.5495 +j 8.6841E-005
------------
613      1          0.53724 /_ -120.0 =   -0.26869 +j  -0.46522
613      2          0.50908 /_  120.0 =   -0.25447 +j   0.44092
613      3           0.5495 /_    0.0 =     0.5495 +j -8.6837E-005

ELEMENT = "Line.3114308_ID3694"
673      1        0.0010041 /_   60.0 =  0.00050215 +j 0.00086956
673      2        0.0010041 /_  -60.0 =  0.00050198 +j -0.00086964
673      3        0.0010041 /_  180.0 =  -0.0010041 +j 9.7891E-008
------------
781      1        0.0010041 /_ -120.0 =  -0.00050215 +j -0.00086956
781      2        0.0010041 /_  120.0 =  -0.00050198 +j 0.00086964
781      3        0.0010041 /_    0.0 =  0.0010041 +j -9.6567E-008

ELEMENT = "Line.3114552_ID3693"
614      1         0.011043 /_ -120.0 =  -0.0055222 +j -0.0095626
614      2         0.011042 /_  120.0 =  -0.0055203 +j 0.0095635
614      3         0.011043 /_    0.0 =   0.011043 +j -1.1362E-006
------------
1800     1         0.011043 /_   60.0 =  0.0055222 +j 0.0095626
1800     2         0.011042 /_  -60.0 =  0.0055203 +j -0.0095635
1800     3         0.011043 /_  180.0 =  -0.011043 +j 1.1368E-006

ELEMENT = "Line.3114688_ID3692"
613      1          0.53657 /_   60.0 =    0.26836 +j   0.46464
613      2          0.50841 /_  -60.0 =    0.25414 +j  -0.44034
613      3          0.54883 /_  180.0 =   -0.54883 +j 8.6768E-005
------------
724      1          0.53657 /_ -120.0 =   -0.26836 +j  -0.46464
724      2          0.50841 /_  120.0 =   -0.25414 +j   0.44034
724      3          0.54883 /_    0.0 =    0.54883 +j -8.6767E-005

ELEMENT = "Line.3114308_ID3698"
781      1       0.00033471 /_   60.0 =  0.00016738 +j 0.00028985
781      2       0.00033471 /_  -60.0 =  0.00016733 +j -0.00028988
781      3       0.00033471 /_  180.0 =  -0.00033471 +j 3.2684E-008
------------
782      1       0.00033471 /_ -120.0 =  -0.00016738 +j -0.00028985
782      2       0.00033471 /_  120.0 =  -0.00016733 +j 0.00028988
782      3       0.00033471 /_    0.0 =  0.00033471 +j -3.2247E-008

ELEMENT = "Line.3114552_ID3697"
614      1         0.010373 /_   60.0 =  0.0051875 +j 0.0089828
614      2         0.010373 /_  -60.0 =  0.0051856 +j -0.0089838
614      3         0.010373 /_  180.0 =  -0.010373 +j 1.0682E-006
------------
615      1         0.010373 /_ -120.0 =  -0.0051875 +j -0.0089828
615      2         0.010373 /_  120.0 =  -0.0051856 +j 0.0089838
615      3         0.010373 /_    0.0 =   0.010373 +j -1.0674E-006

ELEMENT = "Line.12565254_ID3696"
724      1         0.002343 /_   60.0 =  0.0011717 +j  0.002029
724      2         0.002343 /_  -60.0 =  0.0011713 +j -0.0020292
724      3         0.002343 /_  180.0 =  -0.002343 +j 2.5105E-007
------------
1799     1         0.002343 /_ -120.0 =  -0.0011717 +j -0.002029
1799     2         0.002343 /_  120.0 =  -0.0011713 +j 0.0020292
1799     3         0.002343 /_    0.0 =   0.002343 +j -2.5041E-007

ELEMENT = "Line.3114706_ID3695"
724      1          0.53322 /_   60.0 =    0.26668 +j   0.46174
724      2          0.50506 /_  -60.0 =    0.25247 +j  -0.43744
724      3          0.54548 /_  180.0 =   -0.54548 +j 8.641E-005
------------
580      1          0.53322 /_ -120.0 =   -0.26668 +j  -0.46174
580      2          0.50506 /_  120.0 =   -0.25247 +j   0.43744
580      3          0.54548 /_    0.0 =    0.54548 +j -8.6408E-005

ELEMENT = "Line.3114539_ID3700"
615      1        0.0097037 /_   60.0 =  0.0048527 +j 0.0084031
615      2        0.0097036 /_  -60.0 =   0.004851 +j -0.008404
615      3        0.0097037 /_  180.0 =  -0.0097037 +j 1.0005E-006
------------
617      1        0.0097037 /_ -120.0 =  -0.0048527 +j -0.0084031
617      2        0.0097036 /_  120.0 =  -0.004851 +j  0.008404
617      3        0.0097037 /_    0.0 =  0.0097037 +j -9.9785E-007

ELEMENT = "Line.3114742_ID3699"
578      1          0.53255 /_ -120.0 =   -0.26635 +j  -0.46116
578      2           0.5044 /_  120.0 =   -0.25213 +j   0.43686
578      3          0.54481 /_    0.0 =    0.54481 +j -8.6336E-005
------------
580      1          0.53255 /_   60.0 =    0.26635 +j   0.46116
580      2           0.5044 /_  -60.0 =    0.25213 +j  -0.43686
580      3          0.54481 /_  180.0 =   -0.54481 +j 8.6338E-005

ELEMENT = "Line.3114523_ID3703"
617      1        0.0090342 /_   60.0 =  0.0045179 +j 0.0078234
617      2        0.0090341 /_  -60.0 =  0.0045163 +j -0.0078242
617      3        0.0090343 /_  180.0 =  -0.0090343 +j 9.3112E-007
------------
618      1        0.0090342 /_ -120.0 =  -0.0045179 +j -0.0078234
618      2        0.0090341 /_  120.0 =  -0.0045163 +j 0.0078242
618      3        0.0090343 /_    0.0 =  0.0090343 +j -9.2972E-007

ELEMENT = "Line.3114712_ID3702"
669      1        0.0016736 /_ -120.0 =  -0.00083695 +j -0.0014493
669      2        0.0016736 /_  120.0 =  -0.00083664 +j 0.0014494
669      3        0.0016736 /_    0.0 =  0.0016736 +j -1.787E-007
------------
1799     1        0.0016736 /_   60.0 =  0.00083695 +j 0.0014493
1799     2        0.0016736 /_  -60.0 =  0.00083664 +j -0.0014494
1799     3        0.0016736 /_  180.0 =  -0.0016736 +j 1.796E-007

ELEMENT = "Line.3114775_ID3701"
575      1          0.53189 /_ -120.0 =   -0.26601 +j  -0.46058
575      2          0.50373 /_  120.0 =    -0.2518 +j   0.43628
575      3          0.54414 /_    0.0 =    0.54414 +j -8.6263E-005
------------
578      1          0.53189 /_   60.0 =    0.26601 +j   0.46058
578      2          0.50373 /_  -60.0 =     0.2518 +j  -0.43628
578      3          0.54414 /_  180.0 =   -0.54414 +j 8.6264E-005

ELEMENT = "Line.3114530_ID3707"
410      1        0.0083648 /_ -120.0 =  -0.0041831 +j -0.0072437
410      2        0.0083647 /_  120.0 =  -0.0041817 +j 0.0072445
410      3        0.0083649 /_    0.0 =  0.0083649 +j -8.5919E-007
------------
618      1        0.0083648 /_   60.0 =  0.0041831 +j 0.0072437
618      2        0.0083647 /_  -60.0 =  0.0041817 +j -0.0072445
618      3        0.0083649 /_  180.0 =  -0.0083649 +j 8.6413E-007

ELEMENT = "Line.481322777_ID3706"
669      1        0.0010042 /_   60.0 =  0.00050217 +j 0.00086957
669      2        0.0010041 /_  -60.0 =  0.00050198 +j -0.00086966
669      3        0.0010042 /_  180.0 =  -0.0010042 +j 1.0856E-007
------------
670      1        0.0010042 /_ -120.0 =  -0.00050217 +j -0.00086957
670      2        0.0010041 /_  120.0 =  -0.00050198 +j 0.00086966
670      3        0.0010042 /_    0.0 =  0.0010042 +j -1.0656E-007

ELEMENT = "Line.12565324_ID3705"
1798     1         0.013054 /_ -120.0 =  -0.0065283 +j -0.011304
1798     2         0.013054 /_  120.0 =  -0.0065258 +j  0.011306
1798     3         0.013054 /_    0.0 =   0.013054 +j -1.4516E-006
------------
575      1         0.013054 /_   60.0 =  0.0065283 +j  0.011304
575      2         0.013054 /_  -60.0 =  0.0065258 +j -0.011306
575      3         0.013054 /_  180.0 =  -0.013054 +j 1.4527E-006

ELEMENT = "Line.3114794_ID3704"
574      1          0.51783 /_ -120.0 =   -0.25898 +j  -0.44841
574      2          0.48967 /_  120.0 =   -0.24477 +j    0.4241
574      3          0.53009 /_    0.0 =    0.53009 +j -8.47E-005
------------
575      1          0.51783 /_   60.0 =    0.25898 +j   0.44841
575      2          0.48967 /_  -60.0 =    0.24477 +j   -0.4241
575      3          0.53009 /_  180.0 =   -0.53009 +j 8.4701E-005

ELEMENT = "Line.3114579_ID3710"
407      1        0.0076954 /_ -120.0 =  -0.0038484 +j -0.006664
407      2        0.0076953 /_  120.0 =  -0.003847 +j 0.0066647
407      3        0.0076954 /_    0.0 =  0.0076954 +j -7.917E-007
------------
410      1        0.0076954 /_   60.0 =  0.0038484 +j  0.006664
410      2        0.0076953 /_  -60.0 =   0.003847 +j -0.0066647
410      3        0.0076954 /_  180.0 =  -0.0076954 +j 7.9391E-007

ELEMENT = "Line.3114718_ID3709"
722      1       0.00033472 /_ -120.0 =  -0.00016739 +j -0.00028986
722      2       0.00033471 /_  120.0 =  -0.00016733 +j 0.00028989
722      3       0.00033472 /_    0.0 =  0.00033472 +j -3.574E-008
------------
670      1       0.00033472 /_   60.0 =  0.00016739 +j 0.00028986
670      2       0.00033471 /_  -60.0 =  0.00016733 +j -0.00028989
670      3       0.00033472 /_  180.0 =  -0.00033472 +j 3.5972E-008

ELEMENT = "Line.3114794_ID3708"
574      1          0.51716 /_   60.0 =    0.25865 +j   0.44783
574      2            0.489 /_  -60.0 =    0.24443 +j  -0.42352
574      3          0.52942 /_  180.0 =   -0.52942 +j 8.4628E-005
------------
572      1          0.51716 /_ -120.0 =   -0.25865 +j  -0.44783
572      2            0.489 /_  120.0 =   -0.24443 +j   0.42352
572      3          0.52942 /_    0.0 =    0.52942 +j -8.4625E-005

ELEMENT = "Line.3114606_ID3713"
405      1        0.0070259 /_ -120.0 =  -0.0035136 +j -0.0060843
405      2        0.0070259 /_  120.0 =  -0.0035123 +j 0.0060849
405      3         0.007026 /_    0.0 =   0.007026 +j -7.2364E-007
------------
407      1        0.0070259 /_   60.0 =  0.0035136 +j 0.0060843
407      2        0.0070259 /_  -60.0 =  0.0035123 +j -0.0060849
407      3         0.007026 /_  180.0 =  -0.007026 +j 7.2445E-007

ELEMENT = "Line.3114804_ID3712"
567      1         0.012385 /_ -120.0 =  -0.0061935 +j -0.010725
567      2         0.012385 /_  120.0 =  -0.0061911 +j  0.010726
567      3         0.012385 /_    0.0 =   0.012385 +j -1.3767E-006
------------
1798     1         0.012385 /_   60.0 =  0.0061935 +j  0.010725
1798     2         0.012384 /_  -60.0 =  0.0061911 +j -0.010726
1798     3         0.012385 /_  180.0 =  -0.012385 +j 1.3801E-006

ELEMENT = "Line.3114794_ID3711"
572      1          0.51649 /_   60.0 =    0.25831 +j   0.44725
572      2          0.48833 /_  -60.0 =     0.2441 +j  -0.42294
572      3          0.52875 /_  180.0 =   -0.52875 +j 8.4553E-005
------------
573      1          0.51649 /_ -120.0 =   -0.25831 +j  -0.44725
573      2          0.48833 /_  120.0 =    -0.2441 +j   0.42294
573      3          0.52875 /_    0.0 =    0.52875 +j -8.455E-005

ELEMENT = "Line.3114611_ID3716"
405      1        0.0063565 /_   60.0 =  0.0031788 +j 0.0055046
405      2        0.0063564 /_  -60.0 =  0.0031777 +j -0.0055051
405      3        0.0063566 /_  180.0 =  -0.0063566 +j 6.5539E-007
------------
406      1        0.0063565 /_ -120.0 =  -0.0031788 +j -0.0055046
406      2        0.0063564 /_  120.0 =  -0.0031777 +j 0.0055052
406      3        0.0063566 /_    0.0 =  0.0063565 +j -6.5466E-007

ELEMENT = "Line.3114855_ID3715"
566      1         0.011715 /_ -120.0 =  -0.0058587 +j -0.010145
566      2         0.011715 /_  120.0 =  -0.0058565 +j  0.010146
566      3         0.011715 /_    0.0 =   0.011715 +j -1.3038E-006
------------
567      1         0.011715 /_   60.0 =  0.0058587 +j  0.010145
567      2         0.011715 /_  -60.0 =  0.0058565 +j -0.010146
567      3         0.011715 /_  180.0 =  -0.011715 +j 1.3052E-006

ELEMENT = "Line.3114906_ID3714"
858      1          0.51582 /_ -120.0 =   -0.25798 +j  -0.44667
858      2          0.48766 /_  120.0 =   -0.24377 +j   0.42236
858      3          0.52808 /_    0.0 =    0.52808 +j -8.4475E-005
------------
573      1          0.51582 /_   60.0 =    0.25798 +j   0.44667
573      2          0.48766 /_  -60.0 =    0.24377 +j  -0.42236
573      3          0.52808 /_  180.0 =   -0.52808 +j 8.4476E-005

ELEMENT = "Line.3114611_ID3719"
406      1        0.0056871 /_   60.0 =   0.002844 +j 0.0049249
406      2         0.005687 /_  -60.0 =   0.002843 +j -0.0049254
406      3        0.0056871 /_  180.0 =  -0.0056871 +j 5.8644E-007
------------
671      1        0.0056871 /_ -120.0 =  -0.002844 +j -0.0049249
671      2         0.005687 /_  120.0 =  -0.002843 +j 0.0049254
671      3        0.0056871 /_    0.0 =  0.0056871 +j -5.8586E-007

ELEMENT = "Line.3114866_ID3718"
566      1         0.011046 /_   60.0 =  0.0055239 +j 0.0095653
566      2         0.011046 /_  -60.0 =  0.0055218 +j -0.0095664
566      3         0.011046 /_  180.0 =  -0.011046 +j 1.2311E-006
------------
564      1         0.011046 /_ -120.0 =  -0.0055239 +j -0.0095653
564      2         0.011046 /_  120.0 =  -0.0055218 +j 0.0095664
564      3         0.011046 /_    0.0 =   0.011046 +j -1.23E-006

ELEMENT = "Line.3114929_ID3717"
858      1          0.51515 /_   60.0 =    0.25764 +j   0.44609
858      2          0.48699 /_  -60.0 =    0.24343 +j  -0.42178
858      3          0.52741 /_  180.0 =   -0.52741 +j 8.44E-005
------------
853      1          0.51515 /_ -120.0 =   -0.25764 +j  -0.44609
853      2          0.48699 /_  120.0 =   -0.24343 +j   0.42178
853      3          0.52741 /_    0.0 =    0.52741 +j -8.4398E-005

ELEMENT = "Line.481322765_ID3723"
671      1        0.0050177 /_   60.0 =  0.0025093 +j 0.0043452
671      2        0.0050176 /_  -60.0 =  0.0025084 +j -0.0043456
671      3        0.0050177 /_  180.0 =  -0.0050177 +j 5.177E-007
------------
408      1        0.0050177 /_ -120.0 =  -0.0025093 +j -0.0043452
408      2        0.0050176 /_  120.0 =  -0.0025084 +j 0.0043456
408      3        0.0050177 /_    0.0 =  0.0050177 +j -5.1662E-007

ELEMENT = "Line.3114894_ID3722"
564      1         0.010376 /_   60.0 =  0.0051891 +j 0.0089856
564      2         0.010376 /_  -60.0 =  0.0051872 +j -0.0089866
564      3         0.010376 /_  180.0 =  -0.010376 +j 1.1573E-006
------------
565      1         0.010376 /_ -120.0 =  -0.0051891 +j -0.0089856
565      2         0.010376 /_  120.0 =  -0.0051872 +j 0.0089866
565      3         0.010376 /_    0.0 =   0.010376 +j -1.1557E-006

ELEMENT = "Line.12565438_ID3721"
853      1         0.013724 /_   60.0 =  0.0068632 +j  0.011884
853      2         0.013723 /_  -60.0 =  0.0068605 +j -0.011886
...